*HEADING
cubit(/Users/lucas/hole_3d_cubit.inp): 07/01/2014: 07:07:17
version: 14.0
**
********************************** P A R T S **********************************
*PART, NAME=Part-Default
**
********************************** N O D E S **********************************
*NODE, NSET=ALLNODES
       1,   -3.000000e+00,    3.673940e-16,    5.000000e+00
       2,   -2.878479e+00,    8.451977e-01,    5.000000e+00
       3,   -2.523761e+00,    1.621922e+00,    5.000000e+00
       4,   -1.964582e+00,    2.267249e+00,    5.000000e+00
       5,   -1.246245e+00,    2.728896e+00,    5.000000e+00
       6,   -4.269445e-01,    2.969464e+00,    5.000000e+00
       7,    4.269445e-01,    2.969464e+00,    5.000000e+00
       8,    1.246245e+00,    2.728896e+00,    5.000000e+00
       9,    1.964582e+00,    2.267249e+00,    5.000000e+00
      10,    2.523761e+00,    1.621922e+00,    5.000000e+00
      11,    2.878479e+00,    8.451977e-01,    5.000000e+00
      12,    3.000000e+00,    0.000000e+00,    5.000000e+00
      13,    2.878479e+00,   -8.451977e-01,    5.000000e+00
      14,    2.523761e+00,   -1.621922e+00,    5.000000e+00
      15,    1.964582e+00,   -2.267249e+00,    5.000000e+00
      16,    1.246245e+00,   -2.728896e+00,    5.000000e+00
      17,    4.269445e-01,   -2.969464e+00,    5.000000e+00
      18,   -4.269445e-01,   -2.969464e+00,    5.000000e+00
      19,   -1.246245e+00,   -2.728896e+00,    5.000000e+00
      20,   -1.964582e+00,   -2.267249e+00,    5.000000e+00
** ... 1553 like lines cut
**
********************************** E L E M E N T S ****************************
*ELEMENT, TYPE=C3D8R, ELSET=EB1
       1,     410,     841,    1217,     531,      23,      25,      71,      70
       2,     841,     852,    1218,    1217,      25,      26,      72,      71
       3,     852,     863,    1219,    1218,      26,      27,      73,      72
       4,     863,     874,    1220,    1219,      27,      28,      74,      73
       5,     874,     885,    1221,    1220,      28,      29,      75,      74
       6,     885,     896,    1222,    1221,      29,      30,      76,      75
       7,     896,     907,    1223,    1222,      30,      31,      77,      76
       8,     907,     918,    1224,    1223,      31,      32,     113,      77
       9,     918,     929,    1225,    1224,      32,      33,      78,     113
      10,     929,     940,    1226,    1225,      33,      34,      79,      78
      11,     940,     951,    1227,    1226,      34,      35,      80,      79
      12,     951,     687,     709,    1227,      35,      24,      37,      80
      13,     543,     565,    1228,     819,      36,      49,      81,      47
      14,     565,     576,    1229,    1228,      49,      50,      82,      81
      15,     576,     587,    1230,    1229,      50,      51,      83,      82
      16,     587,     598,    1231,    1230,      51,      52,      84,      83
      17,     598,     609,    1232,    1231,      52,      53,     105,      84
      18,     609,     620,    1233,    1232,      53,      54,     104,     105
      19,     620,     631,    1234,    1233,      54,      55,     118,     104
      20,     631,     642,    1235,    1234,      55,      56,     117,     118
** ... 1012 like lines cut
**
********************************** P R O P E R T I E S ************************
*SOLID SECTION, ELSET=EB1, MATERIAL=Default-Steel
**
*END PART
**
**
**
********************************** E N D   P A R T S **********************************
**
**
********************************** A S S E M B L Y ************************************
**
*ASSEMBLY, NAME=ASSEMBLY1
**
*INSTANCE, NAME=Part-Default_1, PART=Part-Default
*END INSTANCE
**
*END ASSEMBLY
**
**
**
*MATERIAL, NAME = Default-Steel
*ELASTIC, TYPE=ISOTROPIC
2.068000e+05, 2.900000e-01
*DENSITY
7.000000e-06
*CONDUCTIVITY,TYPE=ISO
4.500000e-02
*SPECIFIC HEAT
5.000000e+02
**
**
************************************** H I S T O R Y *************************************
**
*PREPRINT
**
**************************************** S T E P 1 ***************************************
*STEP,INC=100,NAME=Default Set
**
*STATIC
1, 1, 1e-05, 1
**
**
**
**
*END STEP
