*HEADING
cubit(/Users/lucas/hole_2d_cubit.inp): 07/01/2014: 07:06:43
version: 14.0
**
********************************** P A R T S **********************************
*PART, NAME=Part-Default
**
********************************** N O D E S **********************************
*NODE, NSET=ALLNODES
       1,    3.000000e+00,    0.000000e+00,    0.000000e+00
       2,    2.897777e+00,   -7.764571e-01,    0.000000e+00
       3,    2.598076e+00,   -1.500000e+00,    0.000000e+00
       4,    2.121320e+00,   -2.121320e+00,    0.000000e+00
       5,    1.500000e+00,   -2.598076e+00,    0.000000e+00
       6,    7.764571e-01,   -2.897777e+00,    0.000000e+00
       7,    1.836970e-16,   -3.000000e+00,    0.000000e+00
       8,   -7.764571e-01,   -2.897777e+00,    0.000000e+00
       9,   -1.500000e+00,   -2.598076e+00,    0.000000e+00
      10,   -2.121320e+00,   -2.121320e+00,    0.000000e+00
      11,   -2.598076e+00,   -1.500000e+00,    0.000000e+00
      12,   -2.897777e+00,   -7.764571e-01,    0.000000e+00
      13,   -3.000000e+00,   -3.673940e-16,    0.000000e+00
      14,   -2.897777e+00,    7.764571e-01,    0.000000e+00
      15,   -2.598076e+00,    1.500000e+00,    0.000000e+00
      16,   -2.121320e+00,    2.121320e+00,    0.000000e+00
      17,   -1.500000e+00,    2.598076e+00,    0.000000e+00
      18,   -7.764571e-01,    2.897777e+00,    0.000000e+00
      19,   -5.510911e-16,    3.000000e+00,    0.000000e+00
      20,    7.764571e-01,    2.897777e+00,    0.000000e+00
** ... 104 like lines cut
**
********************************** E L E M E N T S ****************************
*ELEMENT, TYPE=S4R, ELSET=EB1
       1,       1,       2,     111,      73
       2,       2,       3,     110,     111
       3,       3,       4,     109,     110
       4,       4,       5,      74,     109
       5,       5,       6,      75,      74
       6,       6,       7,      76,      75
       7,       7,       8,     102,      76
       8,       8,       9,     101,     102
       9,       9,      10,      77,     101
      10,      10,      11,      78,      77
      11,      11,      12,      79,      78
      12,      12,      13,      80,      79
      13,      13,      14,      97,      80
      14,      14,      15,      96,      97
      15,      15,      16,      81,      96
      16,      16,      17,      82,      81
      17,      17,      18,      83,      82
      18,      18,      19,      84,      83
      19,      19,      20,      92,      84
      20,      20,      21,      91,      92
** ... 68 like lines cut
**
********************************** P R O P E R T I E S ************************
*SHELL SECTION, ELSET=EB1, SECTION INTEGRATION=SIMPSON, MATERIAL=Default-Steel
1.000000e+00
**
*END PART
**
**
**
********************************** E N D   P A R T S **********************************
**
**
********************************** A S S E M B L Y ************************************
**
*ASSEMBLY, NAME=ASSEMBLY1
**
*INSTANCE, NAME=Part-Default_1, PART=Part-Default
*END INSTANCE
**
*END ASSEMBLY
**
**
**
*MATERIAL, NAME = Default-Steel
*ELASTIC, TYPE=ISOTROPIC
2.068000e+05, 2.900000e-01
*DENSITY
7.000000e-06
*CONDUCTIVITY,TYPE=ISO
4.500000e-02
*SPECIFIC HEAT
5.000000e+02
**
**
************************************** H I S T O R Y *************************************
**
*PREPRINT
**
**************************************** S T E P 1 ***************************************
*STEP,INC=100,NAME=Default Set
**
*STATIC
1, 1, 1e-05, 1
**
**
**
**
*END STEP
